Version 4
SHEET 1 3068 1396
WIRE 1168 544 1168 512
WIRE 1280 544 1168 544
WIRE 1312 544 1280 544
WIRE 1456 544 1392 544
WIRE 1552 544 1456 544
WIRE 1168 576 1168 544
WIRE 1552 576 1552 544
WIRE 1168 688 1168 656
WIRE 1552 688 1552 656
WIRE 1552 688 1168 688
WIRE 1696 704 1616 704
WIRE 1856 704 1776 704
WIRE 1168 720 1168 688
WIRE 1280 768 1280 544
WIRE 1456 784 1456 544
WIRE 1824 832 1824 800
WIRE 1824 832 1792 832
WIRE 1904 832 1824 832
WIRE 2000 832 1968 832
WIRE 1712 848 1664 848
WIRE 2000 848 2000 832
WIRE 1824 864 1792 864
WIRE 1280 880 1280 848
WIRE 1392 880 1280 880
WIRE 1616 880 1616 704
WIRE 1712 880 1616 880
WIRE 1856 896 1856 704
WIRE 1856 896 1792 896
WIRE 1888 896 1856 896
WIRE 1456 912 1456 864
WIRE 1616 912 1616 880
WIRE 1616 912 1456 912
WIRE 1280 928 1280 880
WIRE 1392 944 1392 880
WIRE 1664 944 1664 848
WIRE 1664 944 1392 944
WIRE 1824 944 1824 864
WIRE 1280 1040 1280 1008
FLAG 1168 720 0
FLAG 1824 800 Vcc
FLAG 1824 944 0
FLAG 1888 896 Vcurrent
IOPIN 1888 896 Out
FLAG 2000 848 0
FLAG 1168 512 VCC
FLAG 1280 1040 0
SYMBOL res 1408 528 R90
WINDOW 0 0 56 VBottom 2
WINDOW 3 32 56 VTop 2
SYMATTR InstName Shunt
SYMATTR Value 0.1
SYMBOL voltage 1168 560 R0
WINDOW 123 0 0 Left 2
WINDOW 39 0 0 Left 2
SYMATTR InstName V1
SYMATTR Value 5
SYMBOL res 1536 560 R0
SYMATTR InstName Load
SYMATTR Value {R}
SYMBOL cap 1968 848 M270
WINDOW 0 32 32 VTop 2
WINDOW 3 0 32 VBottom 2
SYMATTR InstName C1
SYMATTR Value 0.1µ
SYMBOL res 1296 912 M0
SYMATTR InstName R1
SYMATTR Value 20k
SYMBOL res 1440 768 R0
SYMATTR InstName R2
SYMATTR Value 100
SYMBOL res 1264 752 R0
SYMATTR InstName R3
SYMATTR Value 100
SYMBOL res 1792 688 R90
WINDOW 0 0 56 VBottom 2
WINDOW 3 32 56 VTop 2
SYMATTR InstName R4
SYMATTR Value 20k
SYMBOL AutoGenerated\\OP184 1744 864 R0
SYMATTR InstName U1
TEXT 2056 696 Left 2 !.op
TEXT 2056 632 Left 2 !.step param R 30 2000 5
