Version 4
SHEET 1 2524 1176
WIRE 1280 544 1168 544
WIRE 1312 544 1280 544
WIRE 1408 544 1392 544
WIRE 1552 544 1408 544
WIRE 1168 576 1168 544
WIRE 1552 576 1552 544
WIRE 1168 688 1168 656
WIRE 1552 688 1552 656
WIRE 1552 688 1168 688
WIRE 1168 720 1168 688
WIRE 1712 720 1664 720
WIRE 1856 720 1792 720
WIRE 1744 816 1744 800
WIRE 1760 816 1744 816
WIRE 1824 832 1824 816
WIRE 1744 864 1744 816
WIRE 1408 880 1408 544
WIRE 1488 880 1408 880
WIRE 1664 880 1664 720
WIRE 1664 880 1568 880
WIRE 1712 880 1664 880
WIRE 1856 896 1856 720
WIRE 1856 896 1776 896
WIRE 1920 896 1856 896
WIRE 1712 912 1632 912
WIRE 1744 960 1744 928
WIRE 1280 976 1280 544
WIRE 1488 976 1280 976
WIRE 1632 976 1632 912
WIRE 1632 976 1568 976
WIRE 1632 1008 1632 976
WIRE 1632 1136 1632 1088
FLAG 1632 1136 0
FLAG 1168 720 0
FLAG 1744 800 Vcc
FLAG 1744 960 0
FLAG 1920 896 Vcurrent
IOPIN 1920 896 Out
FLAG 1824 832 0
FLAG 1168 544 VCC
SYMBOL res 1808 704 R90
WINDOW 0 0 56 VBottom 2
WINDOW 3 32 56 VTop 2
SYMATTR InstName R1
SYMATTR Value 100k
SYMBOL res 1472 896 R270
WINDOW 0 32 56 VTop 2
WINDOW 3 0 56 VBottom 2
SYMATTR InstName R2
SYMATTR Value 1k
SYMBOL res 1584 960 R90
WINDOW 0 0 56 VBottom 2
WINDOW 3 32 56 VTop 2
SYMATTR InstName R3
SYMATTR Value 1k
SYMBOL res 1616 992 R0
SYMATTR InstName R4
SYMATTR Value 100k
SYMBOL res 1408 528 R90
WINDOW 0 0 56 VBottom 2
WINDOW 3 32 56 VTop 2
SYMATTR InstName Shunt
SYMATTR Value 0.1
SYMBOL voltage 1168 560 R0
SYMATTR InstName V1
SYMATTR Value 5V
SYMBOL res 1536 560 R0
SYMATTR InstName Load
SYMATTR Value {R}
SYMBOL Opamps\\LT6015 1744 896 R0
SYMATTR InstName U2
SYMBOL cap 1824 800 R90
WINDOW 0 0 32 VBottom 2
WINDOW 3 32 32 VTop 2
SYMATTR InstName C1
SYMATTR Value 0.1µ
TEXT 2184 568 Left 2 !.step param R 10 100 5
TEXT 2192 616 Left 2 !.op
